LAMMPS (1 Feb 2014)
units si

atom_style sphere

atom_modify map array

boundary ff ff ff

newton off

#processors 16 4 2

communicate single vel yes

read_data atoms_26250.in

  orthogonal box = (0 0 0) to (0.05 0.02 0.01)
  reading atoms ...
  26250 atoms

neighbor 5.0e-4 bin

neigh_modify every 1 delay 0 check yes

pair_style gran/hertz/history 5000.0 50.0 11200.0 50.0 0.5 0

pair_coeff * *

timestep 1e-7

velocity all set 0.0 0.0 0.0 units box

fix 1 all nve/sphere

fix 2 all gravity 9.81 vector 0 0 -1

fix 3 all fdrag

fix xwall all wall/gran 5000.0 NULL 11200 NULL 0.1 0 xplane 0.00 0.05

fix ywall all wall/gran 5000.0 NULL 11200 NULL 0.1 0 yplane 0.00 0.02

fix zwall all wall/gran 5000.0 NULL 11200 NULL 0.1 0 zplane 0.00 0.01

dump id all custom 1000 snapshot.bubblemd id type diameter mass x y z vx vy vz

thermo_style one

thermo 2000

thermo_modify lost ignore

run 0 pre no post no

Step Temp E_pair E_mol TotEng Press
0            0            0            0            0 4.9482021e-21
Loop time of 0.000133574 on 32 procs for 0 steps with 26250 atoms
run 10000 pre no post no

Step Temp E_pair E_mol TotEng Press
0            0            0            0            0 4.9482021e-21
Loop time of 154.646 on 32 procs for 10000 steps with 26250 atoms
run 0 pre no post no
Step Temp E_pair E_mol TotEng Press
10000 2.3859383e+10            0            0 1.2970208e-08 0.0017782518
Loop time of 0.000124261 on 32 procs for 0 steps with 26250 atoms
run 10000 pre no post no
Step Temp E_pair E_mol TotEng Press
10000 2.3859383e+10            0            0 1.2970208e-08 0.0017782518
Loop time of 156.177 on 32 procs for 10000 steps with 26250 atoms
run 10000 pre no post no
Step Temp E_pair E_mol TotEng Press
20000 1.6672071e+13            0            0 9.0631111e-06     0.689091
Loop time of 109.097 on 32 procs for 10000 steps with 10655 atoms
run 10000 pre no post no
Step Temp E_pair E_mol TotEng Press
30000 5.5446426e+16            0            0  0.030141253    2009.7877
Loop time of 8.95409 on 32 procs for 10000 steps with 3347 atoms
run 10000 pre no post no
Step Temp E_pair E_mol TotEng Press
40000 8.8395974e+15            0            0 0.0048052969    320.36679
Loop time of 2.55017 on 32 procs for 10000 steps with 672 atoms
run 10000 pre no post no
Step Temp E_pair E_mol TotEng Press
50000 2.0217227e+15            0            0 0.0010990294    73.269166
Loop time of 1.32274 on 32 procs for 10000 steps with 0 atoms
run 10000 pre no post no
Step Temp E_pair E_mol TotEng Press
60000            0            0            0            0            0
Loop time of 1.24185 on 32 procs for 10000 steps with 0 atoms
run 10000 pre no post no
Step Temp E_pair E_mol TotEng Press
70000            0            0            0            0            0
Loop time of 1.24763 on 32 procs for 10000 steps with 0 atoms
