Unexpected end of /proc/mounts line `overlay / overlay rw,relatime,lowerdir=/data/docker/overlay2/l/BZURXS4YHNIFDQPN46XOC26PIZ:/data/docker/overlay2/l/IZZK2XN7TXKDTDVOFI62BW4FUN:/data/docker/overlay2/l/CXETXQI3ZU3S43T4ADDWF62CNL:/data/docker/overlay2/l/K6AETV65RMUGCOSQWXKBAGEQLX:/data/docker/overlay2/l/FPWXQIE44EYSQRHJRMHMUOFAGJ:/data/docker/overlay2/l/XUENBPH5F6XQTLPQVRQQYFKDYZ:/data/docker/overlay2/l/ZEWWAID4EBJS4KZFPGANGCR2BO:/data/docker/overlay2/l/REYEOJCXTGVOOKMO2CJZEOH2FV:/data/docker/overlay2/l/C4T5VEJAGS2OK6K3M3523QXSGV:/data/docker/'
Unexpected end of /proc/mounts line `overlay2/l/5LMWOC7PENKH434TEZS75HKQB6:/data/docker/overlay2/l/DOAB5S6MFGNLSVEUEZVK5YZI6Y:/data/docker/overlay2/l/5FFTOVZ62VHEWKORD7VHTQNLM7:/data/docker/overlay2/l/NKG4XUCRUIME2CXQ32OG4L5UBZ:/data/docker/overlay2/l/GYYQMSTURQ3DRDODVTBQJIKDQG:/data/docker/overlay2/l/RY2H4RUNIBVF4BJOYB3U6BDOMH:/data/docker/overlay2/l/RMZDBRWLRANUR6IN2TIH3VYWJI:/data/docker/overlay2/l/T6E2JI6NYUQICFPSWNCDTGGILV:/data/docker/overlay2/l/CFCISXCHESQSGPX3LDWNDUPFWM:/data/docker/overlay2/l/D3IJPWJZF3CLHBJAKAXWRIRRKV:/data/docker/o'
/*---------------------------------------------------------------------------*\
| =========                 |                                                 |
| \\      /  F ield         | OpenFOAM: The Open Source CFD Toolbox           |
|  \\    /   O peration     | Version:  2.4.0                                 |
|   \\  /    A nd           | Web:      www.OpenFOAM.org                      |
|    \\/     M anipulation  |                                                 |
\*---------------------------------------------------------------------------*/
Build  : 2.4.0-dcea1e13ff76
Exec   : lammpsFoam -parallel
Date   : Oct 20 2025
Time   : 16:29:38
Host   : "autodl-container-68ab428934-c4e3195d"
PID    : 1691
Case   : /root/windDEM/251016
nProcs : 32
Slaves : 
31
(
"autodl-container-68ab428934-c4e3195d.1692"
"autodl-container-68ab428934-c4e3195d.1693"
"autodl-container-68ab428934-c4e3195d.1694"
"autodl-container-68ab428934-c4e3195d.1695"
"autodl-container-68ab428934-c4e3195d.1696"
"autodl-container-68ab428934-c4e3195d.1697"
"autodl-container-68ab428934-c4e3195d.1698"
"autodl-container-68ab428934-c4e3195d.1699"
"autodl-container-68ab428934-c4e3195d.1700"
"autodl-container-68ab428934-c4e3195d.1701"
"autodl-container-68ab428934-c4e3195d.1702"
"autodl-container-68ab428934-c4e3195d.1703"
"autodl-container-68ab428934-c4e3195d.1704"
"autodl-container-68ab428934-c4e3195d.1705"
"autodl-container-68ab428934-c4e3195d.1706"
"autodl-container-68ab428934-c4e3195d.1707"
"autodl-container-68ab428934-c4e3195d.1708"
"autodl-container-68ab428934-c4e3195d.1709"
"autodl-container-68ab428934-c4e3195d.1710"
"autodl-container-68ab428934-c4e3195d.1711"
"autodl-container-68ab428934-c4e3195d.1712"
"autodl-container-68ab428934-c4e3195d.1716"
"autodl-container-68ab428934-c4e3195d.1718"
"autodl-container-68ab428934-c4e3195d.1721"
"autodl-container-68ab428934-c4e3195d.1723"
"autodl-container-68ab428934-c4e3195d.1725"
"autodl-container-68ab428934-c4e3195d.1726"
"autodl-container-68ab428934-c4e3195d.1727"
"autodl-container-68ab428934-c4e3195d.1729"
"autodl-container-68ab428934-c4e3195d.1730"
"autodl-container-68ab428934-c4e3195d.1732"
)

Pstream initialized with:
    floatTransfer      : 0
    nProcsSimpleSum    : 0
    commsType          : nonBlocking
    polling iterations : 0
sigFpe : Enabling floating point exception trapping (FOAM_SIGFPE).
fileModificationChecking : Monitoring run-time modified files using timeStampMaster
allowSystemOperations : Allowing user-supplied system call operations

// * * * * * * * * * * * * * * * * * * * * * * * * * * * * * * * * * * * * * //
Create time

Create mesh for time = 0


Reading environmentalProperties
Reading field alpha

Reading field p

Reading field Ub

Setting up place-holder for Ua

Reading transportProperties

*** Max possible alpha set to 0.70 by default
*** Diffusion steps set to 6 by default
Calculating face flux field phia

Calculating face flux field phib

Calculating field DDtUa and DDtUb

Calculating field g.h

+++++++++++ NOTE +++++++++++++
Running in REGULAR MODE.
NO PRESSURE GRADIENT APPLIED!
++++++++++++++++++++++++++++++
Selecting incompressible transport model Newtonian
Selecting turbulence model type LES
Selecting LES turbulence model Smagorinsky
Selecting LES delta type cubeRootVol
SmagorinskyCoeffs
{
    Ce              1.048;
    Ck              0.094;
}

Constructing particles and cloud

test point: 0
Total cells: 0. Total particles to add: 0
LAMMPS (1 Feb 2014)
Reading Lammps inputfile (in.lammps) ...
Reading data file ...
ERROR: Unknown identifier in data file: Granular Flow simulation (read_data.cpp:708)
-------------------------------------------------------
Primary job  terminated normally, but 1 process returned
a non-zero exit code.. Per user-direction, the job has been aborted.
-------------------------------------------------------
--------------------------------------------------------------------------
mpirun detected that one or more processes exited with non-zero status, thus causing
the job to be terminated. The first process to do so was:

  Process name: [[53284,1],3]
  Exit code:    1
--------------------------------------------------------------------------
